# OpenRadioss starter deck for Stage 13 LVI (ASTM D7136)
# Generated by runner.py from FEA_AP-PLY repo
# Author: J.C. Vaught
/BEGIN
stage_13_LVI_D7136
       0                     1
                              1.0       1.0        1.0        1.0
/UNIT/1
m  kg  s

# ---------------- mesh imported from inp2rad ----------------
# WARNING: mesh block placeholder — rerun with gmsh + meshio + inp2rad available.

# ---------------- ply orientations as /SKEW ----------------
/SKEW/FIX/1
ply_-45_skew
# OX OY OZ X1 Y1 Z1 X2 Y2 Z2
  0.0 0.0 0.0  0.7071067811865476 -0.7071067811865475 0.0  0.7071067811865475 0.7071067811865476 0.0

/SKEW/FIX/2
ply_+0_skew
# OX OY OZ X1 Y1 Z1 X2 Y2 Z2
  0.0 0.0 0.0  1.0 0.0 0.0  -0.0 1.0 0.0

/SKEW/FIX/3
ply_+45_skew
# OX OY OZ X1 Y1 Z1 X2 Y2 Z2
  0.0 0.0 0.0  0.7071067811865476 0.7071067811865475 0.0  -0.7071067811865475 0.7071067811865476 0.0

/SKEW/FIX/4
ply_+90_skew
# OX OY OZ X1 Y1 Z1 X2 Y2 Z2
  0.0 0.0 0.0  6.123233995736766e-17 1.0 0.0  -1.0 6.123233995736766e-17 0.0


# ---------------- materials and Hashin failure ----------------
/MAT/LAW25/1
IM7_8552_-45deg
# rho_I             E11           E22           NU12          NU23
  1.580e+03     1.610e+11  1.138e+10  0.32    0.43
# G12               G23           EPS_F1        EPS_F2        EPS_M
  5.170e+09     3.980e+09 0.0           0.0           0.0
# Iform Sigy   B    N    FMAX
  1     0.0    0.0  0.0  0.0
# WPLAREF WPMAX Cbeta_T Cbeta_C Csigma
  0.0     0.0   0.0     0.0     0.0
/FAIL/HASHIN/1
# Ifail_sh  Ifail_so   ratio_max
  0          2          1.0
# sigma1t        sigma1c        sigma2t        sigma2c        sigma_crush
  2.806e+09   1.400e+09   6.000e+07   1.850e+08   8.500e+08
# S12            S23
  9.000e+07  9.000e+07
# Gf_1t          Gf_1c          Gf_2t          Gf_2c
  8.150e+04 1.063e+05 2.800e+02 7.900e+02

/MAT/LAW25/2
IM7_8552_+0deg
# rho_I             E11           E22           NU12          NU23
  1.580e+03     1.610e+11  1.138e+10  0.32    0.43
# G12               G23           EPS_F1        EPS_F2        EPS_M
  5.170e+09     3.980e+09 0.0           0.0           0.0
# Iform Sigy   B    N    FMAX
  1     0.0    0.0  0.0  0.0
# WPLAREF WPMAX Cbeta_T Cbeta_C Csigma
  0.0     0.0   0.0     0.0     0.0
/FAIL/HASHIN/2
# Ifail_sh  Ifail_so   ratio_max
  0          2          1.0
# sigma1t        sigma1c        sigma2t        sigma2c        sigma_crush
  2.806e+09   1.400e+09   6.000e+07   1.850e+08   8.500e+08
# S12            S23
  9.000e+07  9.000e+07
# Gf_1t          Gf_1c          Gf_2t          Gf_2c
  8.150e+04 1.063e+05 2.800e+02 7.900e+02

/MAT/LAW25/3
IM7_8552_+45deg
# rho_I             E11           E22           NU12          NU23
  1.580e+03     1.610e+11  1.138e+10  0.32    0.43
# G12               G23           EPS_F1        EPS_F2        EPS_M
  5.170e+09     3.980e+09 0.0           0.0           0.0
# Iform Sigy   B    N    FMAX
  1     0.0    0.0  0.0  0.0
# WPLAREF WPMAX Cbeta_T Cbeta_C Csigma
  0.0     0.0   0.0     0.0     0.0
/FAIL/HASHIN/3
# Ifail_sh  Ifail_so   ratio_max
  0          2          1.0
# sigma1t        sigma1c        sigma2t        sigma2c        sigma_crush
  2.806e+09   1.400e+09   6.000e+07   1.850e+08   8.500e+08
# S12            S23
  9.000e+07  9.000e+07
# Gf_1t          Gf_1c          Gf_2t          Gf_2c
  8.150e+04 1.063e+05 2.800e+02 7.900e+02

/MAT/LAW25/4
IM7_8552_+90deg
# rho_I             E11           E22           NU12          NU23
  1.580e+03     1.610e+11  1.138e+10  0.32    0.43
# G12               G23           EPS_F1        EPS_F2        EPS_M
  5.170e+09     3.980e+09 0.0           0.0           0.0
# Iform Sigy   B    N    FMAX
  1     0.0    0.0  0.0  0.0
# WPLAREF WPMAX Cbeta_T Cbeta_C Csigma
  0.0     0.0   0.0     0.0     0.0
/FAIL/HASHIN/4
# Ifail_sh  Ifail_so   ratio_max
  0          2          1.0
# sigma1t        sigma1c        sigma2t        sigma2c        sigma_crush
  2.806e+09   1.400e+09   6.000e+07   1.850e+08   8.500e+08
# S12            S23
  9.000e+07  9.000e+07
# Gf_1t          Gf_1c          Gf_2t          Gf_2c
  8.150e+04 1.063e+05 2.800e+02 7.900e+02


# ---------------- properties and parts (24 plies) ----------------
/PROP/TYPE14/101
ply_01_solid_prop
# Ihbe Ismstr Iframe Iorth Iplas Itetra Itetra4 Iint
  24   2      0      1     0     0       0       0
# qa qb h dn LFAC SKEW_ID
  1.1 0.05 0.0 0.0 0.0 2
/PART/1
ply_01_part
# prop_ID  mat_ID  subset_ID
  101 2 0
# group of bricks for this ply (set by mesh extrusion layer ply_idx)
/GRBRIC/PART/1001
ply_01_bricks
  1

/PROP/TYPE14/102
ply_02_solid_prop
# Ihbe Ismstr Iframe Iorth Iplas Itetra Itetra4 Iint
  24   2      0      1     0     0       0       0
# qa qb h dn LFAC SKEW_ID
  1.1 0.05 0.0 0.0 0.0 3
/PART/2
ply_02_part
# prop_ID  mat_ID  subset_ID
  102 3 0
# group of bricks for this ply (set by mesh extrusion layer ply_idx)
/GRBRIC/PART/1002
ply_02_bricks
  2

/PROP/TYPE14/103
ply_03_solid_prop
# Ihbe Ismstr Iframe Iorth Iplas Itetra Itetra4 Iint
  24   2      0      1     0     0       0       0
# qa qb h dn LFAC SKEW_ID
  1.1 0.05 0.0 0.0 0.0 1
/PART/3
ply_03_part
# prop_ID  mat_ID  subset_ID
  103 1 0
# group of bricks for this ply (set by mesh extrusion layer ply_idx)
/GRBRIC/PART/1003
ply_03_bricks
  3

/PROP/TYPE14/104
ply_04_solid_prop
# Ihbe Ismstr Iframe Iorth Iplas Itetra Itetra4 Iint
  24   2      0      1     0     0       0       0
# qa qb h dn LFAC SKEW_ID
  1.1 0.05 0.0 0.0 0.0 4
/PART/4
ply_04_part
# prop_ID  mat_ID  subset_ID
  104 4 0
# group of bricks for this ply (set by mesh extrusion layer ply_idx)
/GRBRIC/PART/1004
ply_04_bricks
  4

/PROP/TYPE14/105
ply_05_solid_prop
# Ihbe Ismstr Iframe Iorth Iplas Itetra Itetra4 Iint
  24   2      0      1     0     0       0       0
# qa qb h dn LFAC SKEW_ID
  1.1 0.05 0.0 0.0 0.0 2
/PART/5
ply_05_part
# prop_ID  mat_ID  subset_ID
  105 2 0
# group of bricks for this ply (set by mesh extrusion layer ply_idx)
/GRBRIC/PART/1005
ply_05_bricks
  5

/PROP/TYPE14/106
ply_06_solid_prop
# Ihbe Ismstr Iframe Iorth Iplas Itetra Itetra4 Iint
  24   2      0      1     0     0       0       0
# qa qb h dn LFAC SKEW_ID
  1.1 0.05 0.0 0.0 0.0 3
/PART/6
ply_06_part
# prop_ID  mat_ID  subset_ID
  106 3 0
# group of bricks for this ply (set by mesh extrusion layer ply_idx)
/GRBRIC/PART/1006
ply_06_bricks
  6

/PROP/TYPE14/107
ply_07_solid_prop
# Ihbe Ismstr Iframe Iorth Iplas Itetra Itetra4 Iint
  24   2      0      1     0     0       0       0
# qa qb h dn LFAC SKEW_ID
  1.1 0.05 0.0 0.0 0.0 1
/PART/7
ply_07_part
# prop_ID  mat_ID  subset_ID
  107 1 0
# group of bricks for this ply (set by mesh extrusion layer ply_idx)
/GRBRIC/PART/1007
ply_07_bricks
  7

/PROP/TYPE14/108
ply_08_solid_prop
# Ihbe Ismstr Iframe Iorth Iplas Itetra Itetra4 Iint
  24   2      0      1     0     0       0       0
# qa qb h dn LFAC SKEW_ID
  1.1 0.05 0.0 0.0 0.0 4
/PART/8
ply_08_part
# prop_ID  mat_ID  subset_ID
  108 4 0
# group of bricks for this ply (set by mesh extrusion layer ply_idx)
/GRBRIC/PART/1008
ply_08_bricks
  8

/PROP/TYPE14/109
ply_09_solid_prop
# Ihbe Ismstr Iframe Iorth Iplas Itetra Itetra4 Iint
  24   2      0      1     0     0       0       0
# qa qb h dn LFAC SKEW_ID
  1.1 0.05 0.0 0.0 0.0 2
/PART/9
ply_09_part
# prop_ID  mat_ID  subset_ID
  109 2 0
# group of bricks for this ply (set by mesh extrusion layer ply_idx)
/GRBRIC/PART/1009
ply_09_bricks
  9

/PROP/TYPE14/110
ply_10_solid_prop
# Ihbe Ismstr Iframe Iorth Iplas Itetra Itetra4 Iint
  24   2      0      1     0     0       0       0
# qa qb h dn LFAC SKEW_ID
  1.1 0.05 0.0 0.0 0.0 3
/PART/10
ply_10_part
# prop_ID  mat_ID  subset_ID
  110 3 0
# group of bricks for this ply (set by mesh extrusion layer ply_idx)
/GRBRIC/PART/1010
ply_10_bricks
  10

/PROP/TYPE14/111
ply_11_solid_prop
# Ihbe Ismstr Iframe Iorth Iplas Itetra Itetra4 Iint
  24   2      0      1     0     0       0       0
# qa qb h dn LFAC SKEW_ID
  1.1 0.05 0.0 0.0 0.0 1
/PART/11
ply_11_part
# prop_ID  mat_ID  subset_ID
  111 1 0
# group of bricks for this ply (set by mesh extrusion layer ply_idx)
/GRBRIC/PART/1011
ply_11_bricks
  11

/PROP/TYPE14/112
ply_12_solid_prop
# Ihbe Ismstr Iframe Iorth Iplas Itetra Itetra4 Iint
  24   2      0      1     0     0       0       0
# qa qb h dn LFAC SKEW_ID
  1.1 0.05 0.0 0.0 0.0 4
/PART/12
ply_12_part
# prop_ID  mat_ID  subset_ID
  112 4 0
# group of bricks for this ply (set by mesh extrusion layer ply_idx)
/GRBRIC/PART/1012
ply_12_bricks
  12

/PROP/TYPE14/113
ply_13_solid_prop
# Ihbe Ismstr Iframe Iorth Iplas Itetra Itetra4 Iint
  24   2      0      1     0     0       0       0
# qa qb h dn LFAC SKEW_ID
  1.1 0.05 0.0 0.0 0.0 4
/PART/13
ply_13_part
# prop_ID  mat_ID  subset_ID
  113 4 0
# group of bricks for this ply (set by mesh extrusion layer ply_idx)
/GRBRIC/PART/1013
ply_13_bricks
  13

/PROP/TYPE14/114
ply_14_solid_prop
# Ihbe Ismstr Iframe Iorth Iplas Itetra Itetra4 Iint
  24   2      0      1     0     0       0       0
# qa qb h dn LFAC SKEW_ID
  1.1 0.05 0.0 0.0 0.0 1
/PART/14
ply_14_part
# prop_ID  mat_ID  subset_ID
  114 1 0
# group of bricks for this ply (set by mesh extrusion layer ply_idx)
/GRBRIC/PART/1014
ply_14_bricks
  14

/PROP/TYPE14/115
ply_15_solid_prop
# Ihbe Ismstr Iframe Iorth Iplas Itetra Itetra4 Iint
  24   2      0      1     0     0       0       0
# qa qb h dn LFAC SKEW_ID
  1.1 0.05 0.0 0.0 0.0 3
/PART/15
ply_15_part
# prop_ID  mat_ID  subset_ID
  115 3 0
# group of bricks for this ply (set by mesh extrusion layer ply_idx)
/GRBRIC/PART/1015
ply_15_bricks
  15

/PROP/TYPE14/116
ply_16_solid_prop
# Ihbe Ismstr Iframe Iorth Iplas Itetra Itetra4 Iint
  24   2      0      1     0     0       0       0
# qa qb h dn LFAC SKEW_ID
  1.1 0.05 0.0 0.0 0.0 2
/PART/16
ply_16_part
# prop_ID  mat_ID  subset_ID
  116 2 0
# group of bricks for this ply (set by mesh extrusion layer ply_idx)
/GRBRIC/PART/1016
ply_16_bricks
  16

/PROP/TYPE14/117
ply_17_solid_prop
# Ihbe Ismstr Iframe Iorth Iplas Itetra Itetra4 Iint
  24   2      0      1     0     0       0       0
# qa qb h dn LFAC SKEW_ID
  1.1 0.05 0.0 0.0 0.0 4
/PART/17
ply_17_part
# prop_ID  mat_ID  subset_ID
  117 4 0
# group of bricks for this ply (set by mesh extrusion layer ply_idx)
/GRBRIC/PART/1017
ply_17_bricks
  17

/PROP/TYPE14/118
ply_18_solid_prop
# Ihbe Ismstr Iframe Iorth Iplas Itetra Itetra4 Iint
  24   2      0      1     0     0       0       0
# qa qb h dn LFAC SKEW_ID
  1.1 0.05 0.0 0.0 0.0 1
/PART/18
ply_18_part
# prop_ID  mat_ID  subset_ID
  118 1 0
# group of bricks for this ply (set by mesh extrusion layer ply_idx)
/GRBRIC/PART/1018
ply_18_bricks
  18

/PROP/TYPE14/119
ply_19_solid_prop
# Ihbe Ismstr Iframe Iorth Iplas Itetra Itetra4 Iint
  24   2      0      1     0     0       0       0
# qa qb h dn LFAC SKEW_ID
  1.1 0.05 0.0 0.0 0.0 3
/PART/19
ply_19_part
# prop_ID  mat_ID  subset_ID
  119 3 0
# group of bricks for this ply (set by mesh extrusion layer ply_idx)
/GRBRIC/PART/1019
ply_19_bricks
  19

/PROP/TYPE14/120
ply_20_solid_prop
# Ihbe Ismstr Iframe Iorth Iplas Itetra Itetra4 Iint
  24   2      0      1     0     0       0       0
# qa qb h dn LFAC SKEW_ID
  1.1 0.05 0.0 0.0 0.0 2
/PART/20
ply_20_part
# prop_ID  mat_ID  subset_ID
  120 2 0
# group of bricks for this ply (set by mesh extrusion layer ply_idx)
/GRBRIC/PART/1020
ply_20_bricks
  20

/PROP/TYPE14/121
ply_21_solid_prop
# Ihbe Ismstr Iframe Iorth Iplas Itetra Itetra4 Iint
  24   2      0      1     0     0       0       0
# qa qb h dn LFAC SKEW_ID
  1.1 0.05 0.0 0.0 0.0 4
/PART/21
ply_21_part
# prop_ID  mat_ID  subset_ID
  121 4 0
# group of bricks for this ply (set by mesh extrusion layer ply_idx)
/GRBRIC/PART/1021
ply_21_bricks
  21

/PROP/TYPE14/122
ply_22_solid_prop
# Ihbe Ismstr Iframe Iorth Iplas Itetra Itetra4 Iint
  24   2      0      1     0     0       0       0
# qa qb h dn LFAC SKEW_ID
  1.1 0.05 0.0 0.0 0.0 1
/PART/22
ply_22_part
# prop_ID  mat_ID  subset_ID
  122 1 0
# group of bricks for this ply (set by mesh extrusion layer ply_idx)
/GRBRIC/PART/1022
ply_22_bricks
  22

/PROP/TYPE14/123
ply_23_solid_prop
# Ihbe Ismstr Iframe Iorth Iplas Itetra Itetra4 Iint
  24   2      0      1     0     0       0       0
# qa qb h dn LFAC SKEW_ID
  1.1 0.05 0.0 0.0 0.0 3
/PART/23
ply_23_part
# prop_ID  mat_ID  subset_ID
  123 3 0
# group of bricks for this ply (set by mesh extrusion layer ply_idx)
/GRBRIC/PART/1023
ply_23_bricks
  23

/PROP/TYPE14/124
ply_24_solid_prop
# Ihbe Ismstr Iframe Iorth Iplas Itetra Itetra4 Iint
  24   2      0      1     0     0       0       0
# qa qb h dn LFAC SKEW_ID
  1.1 0.05 0.0 0.0 0.0 2
/PART/24
ply_24_part
# prop_ID  mat_ID  subset_ID
  124 2 0
# group of bricks for this ply (set by mesh extrusion layer ply_idx)
/GRBRIC/PART/1024
ply_24_bricks
  24


# ---------------- impactor rigid body ----------------
/MAT/LAW1/100
steel_rigid_impactor_dummy
# rho E nu
  7850.0 2.10e11 0.30
/PROP/TYPE14/200
impactor_solid_prop
  24 2 0 0 0 0 0 0
  1.1 0.05 0.0 0.0 0.0 0
/PART/100
impactor_part
  200 100 0
/RBODY/9001
hemispherical_impactor_rigid
# main_node ICOG Surf_ID Skew Ispher
  99001     1    0       0    0
# Mass        Jxx        Jyy         Jzz         Jxy Jxz Jyz
  5.0 4.6e-4    4.6e-4      4.6e-4      0.0 0.0 0.0
# secondary_grnod (impactor brick nodes)
  4001
/INIVEL/TRA/1
impactor_drop
  0.0  0.0  -3.464102
# applied to grnod
  4001
/GRAV/1
gravity
# Ngrav Ndir Tstart Skew_ID
  -9.81 3    0.0    0
# applied to grnod (everyone)
  9999


# ---------------- impactor-laminate contact ----------------
/INTER/TYPE7/8001
impactor_to_laminate_contact
# Igap Multimp Inacti Fpenmax Iform Idel sens_id
  0    0       6      0.0    2     0    0
# Stmin Stmax dtmin dtstart Tstart Tstop
  0.0   0.0   0.0   0.0     0.0    0.0
# main_surf_id (impactor lower hemisphere) / secondary_grnod (laminate upper face)
  4002                                       4003
# Stfac fric gapmin Iform2 sens_id
  0.1 0.3 5e-05 0 0


# ---------------- inter-laminar cohesive interfaces (23) ----------------
/INTER/TYPE2/7001
ply_01_to_ply_02_cohesive_tie
# Spotflag Idel Igap Inacti Iform Imult
  25       1    0    0      2     0
# Stmin Stfac Fric  Gap   Tstart Tstop
  0.0   1.0   0.0   0.0   0.0    0.0
# main_grnod (ply k bottom face nodes)  / secondary_grnod (ply k+1 top face nodes)
  2001                                   3001
# bilinear cohesive failure block (energy-based, Spotflag=25):
# alpha_n  alpha_t  N  Imass  sigma_n        sigma_t        GIc            GIIc        eta_BK
  1.0      1.0      1  0      6.000e+07 9.000e+07 2.500e+02 8.000e+02 1.45

/INTER/TYPE2/7002
ply_02_to_ply_03_cohesive_tie
# Spotflag Idel Igap Inacti Iform Imult
  25       1    0    0      2     0
# Stmin Stfac Fric  Gap   Tstart Tstop
  0.0   1.0   0.0   0.0   0.0    0.0
# main_grnod (ply k bottom face nodes)  / secondary_grnod (ply k+1 top face nodes)
  2002                                   3002
# bilinear cohesive failure block (energy-based, Spotflag=25):
# alpha_n  alpha_t  N  Imass  sigma_n        sigma_t        GIc            GIIc        eta_BK
  1.0      1.0      1  0      6.000e+07 9.000e+07 2.500e+02 8.000e+02 1.45

/INTER/TYPE2/7003
ply_03_to_ply_04_cohesive_tie
# Spotflag Idel Igap Inacti Iform Imult
  25       1    0    0      2     0
# Stmin Stfac Fric  Gap   Tstart Tstop
  0.0   1.0   0.0   0.0   0.0    0.0
# main_grnod (ply k bottom face nodes)  / secondary_grnod (ply k+1 top face nodes)
  2003                                   3003
# bilinear cohesive failure block (energy-based, Spotflag=25):
# alpha_n  alpha_t  N  Imass  sigma_n        sigma_t        GIc            GIIc        eta_BK
  1.0      1.0      1  0      6.000e+07 9.000e+07 2.500e+02 8.000e+02 1.45

/INTER/TYPE2/7004
ply_04_to_ply_05_cohesive_tie
# Spotflag Idel Igap Inacti Iform Imult
  25       1    0    0      2     0
# Stmin Stfac Fric  Gap   Tstart Tstop
  0.0   1.0   0.0   0.0   0.0    0.0
# main_grnod (ply k bottom face nodes)  / secondary_grnod (ply k+1 top face nodes)
  2004                                   3004
# bilinear cohesive failure block (energy-based, Spotflag=25):
# alpha_n  alpha_t  N  Imass  sigma_n        sigma_t        GIc            GIIc        eta_BK
  1.0      1.0      1  0      6.000e+07 9.000e+07 2.500e+02 8.000e+02 1.45

/INTER/TYPE2/7005
ply_05_to_ply_06_cohesive_tie
# Spotflag Idel Igap Inacti Iform Imult
  25       1    0    0      2     0
# Stmin Stfac Fric  Gap   Tstart Tstop
  0.0   1.0   0.0   0.0   0.0    0.0
# main_grnod (ply k bottom face nodes)  / secondary_grnod (ply k+1 top face nodes)
  2005                                   3005
# bilinear cohesive failure block (energy-based, Spotflag=25):
# alpha_n  alpha_t  N  Imass  sigma_n        sigma_t        GIc            GIIc        eta_BK
  1.0      1.0      1  0      6.000e+07 9.000e+07 2.500e+02 8.000e+02 1.45

/INTER/TYPE2/7006
ply_06_to_ply_07_cohesive_tie
# Spotflag Idel Igap Inacti Iform Imult
  25       1    0    0      2     0
# Stmin Stfac Fric  Gap   Tstart Tstop
  0.0   1.0   0.0   0.0   0.0    0.0
# main_grnod (ply k bottom face nodes)  / secondary_grnod (ply k+1 top face nodes)
  2006                                   3006
# bilinear cohesive failure block (energy-based, Spotflag=25):
# alpha_n  alpha_t  N  Imass  sigma_n        sigma_t        GIc            GIIc        eta_BK
  1.0      1.0      1  0      6.000e+07 9.000e+07 2.500e+02 8.000e+02 1.45

/INTER/TYPE2/7007
ply_07_to_ply_08_cohesive_tie
# Spotflag Idel Igap Inacti Iform Imult
  25       1    0    0      2     0
# Stmin Stfac Fric  Gap   Tstart Tstop
  0.0   1.0   0.0   0.0   0.0    0.0
# main_grnod (ply k bottom face nodes)  / secondary_grnod (ply k+1 top face nodes)
  2007                                   3007
# bilinear cohesive failure block (energy-based, Spotflag=25):
# alpha_n  alpha_t  N  Imass  sigma_n        sigma_t        GIc            GIIc        eta_BK
  1.0      1.0      1  0      6.000e+07 9.000e+07 2.500e+02 8.000e+02 1.45

/INTER/TYPE2/7008
ply_08_to_ply_09_cohesive_tie
# Spotflag Idel Igap Inacti Iform Imult
  25       1    0    0      2     0
# Stmin Stfac Fric  Gap   Tstart Tstop
  0.0   1.0   0.0   0.0   0.0    0.0
# main_grnod (ply k bottom face nodes)  / secondary_grnod (ply k+1 top face nodes)
  2008                                   3008
# bilinear cohesive failure block (energy-based, Spotflag=25):
# alpha_n  alpha_t  N  Imass  sigma_n        sigma_t        GIc            GIIc        eta_BK
  1.0      1.0      1  0      6.000e+07 9.000e+07 2.500e+02 8.000e+02 1.45

/INTER/TYPE2/7009
ply_09_to_ply_10_cohesive_tie
# Spotflag Idel Igap Inacti Iform Imult
  25       1    0    0      2     0
# Stmin Stfac Fric  Gap   Tstart Tstop
  0.0   1.0   0.0   0.0   0.0    0.0
# main_grnod (ply k bottom face nodes)  / secondary_grnod (ply k+1 top face nodes)
  2009                                   3009
# bilinear cohesive failure block (energy-based, Spotflag=25):
# alpha_n  alpha_t  N  Imass  sigma_n        sigma_t        GIc            GIIc        eta_BK
  1.0      1.0      1  0      6.000e+07 9.000e+07 2.500e+02 8.000e+02 1.45

/INTER/TYPE2/7010
ply_10_to_ply_11_cohesive_tie
# Spotflag Idel Igap Inacti Iform Imult
  25       1    0    0      2     0
# Stmin Stfac Fric  Gap   Tstart Tstop
  0.0   1.0   0.0   0.0   0.0    0.0
# main_grnod (ply k bottom face nodes)  / secondary_grnod (ply k+1 top face nodes)
  2010                                   3010
# bilinear cohesive failure block (energy-based, Spotflag=25):
# alpha_n  alpha_t  N  Imass  sigma_n        sigma_t        GIc            GIIc        eta_BK
  1.0      1.0      1  0      6.000e+07 9.000e+07 2.500e+02 8.000e+02 1.45

/INTER/TYPE2/7011
ply_11_to_ply_12_cohesive_tie
# Spotflag Idel Igap Inacti Iform Imult
  25       1    0    0      2     0
# Stmin Stfac Fric  Gap   Tstart Tstop
  0.0   1.0   0.0   0.0   0.0    0.0
# main_grnod (ply k bottom face nodes)  / secondary_grnod (ply k+1 top face nodes)
  2011                                   3011
# bilinear cohesive failure block (energy-based, Spotflag=25):
# alpha_n  alpha_t  N  Imass  sigma_n        sigma_t        GIc            GIIc        eta_BK
  1.0      1.0      1  0      6.000e+07 9.000e+07 2.500e+02 8.000e+02 1.45

/INTER/TYPE2/7012
ply_12_to_ply_13_cohesive_tie
# Spotflag Idel Igap Inacti Iform Imult
  25       1    0    0      2     0
# Stmin Stfac Fric  Gap   Tstart Tstop
  0.0   1.0   0.0   0.0   0.0    0.0
# main_grnod (ply k bottom face nodes)  / secondary_grnod (ply k+1 top face nodes)
  2012                                   3012
# bilinear cohesive failure block (energy-based, Spotflag=25):
# alpha_n  alpha_t  N  Imass  sigma_n        sigma_t        GIc            GIIc        eta_BK
  1.0      1.0      1  0      6.000e+07 9.000e+07 2.500e+02 8.000e+02 1.45

/INTER/TYPE2/7013
ply_13_to_ply_14_cohesive_tie
# Spotflag Idel Igap Inacti Iform Imult
  25       1    0    0      2     0
# Stmin Stfac Fric  Gap   Tstart Tstop
  0.0   1.0   0.0   0.0   0.0    0.0
# main_grnod (ply k bottom face nodes)  / secondary_grnod (ply k+1 top face nodes)
  2013                                   3013
# bilinear cohesive failure block (energy-based, Spotflag=25):
# alpha_n  alpha_t  N  Imass  sigma_n        sigma_t        GIc            GIIc        eta_BK
  1.0      1.0      1  0      6.000e+07 9.000e+07 2.500e+02 8.000e+02 1.45

/INTER/TYPE2/7014
ply_14_to_ply_15_cohesive_tie
# Spotflag Idel Igap Inacti Iform Imult
  25       1    0    0      2     0
# Stmin Stfac Fric  Gap   Tstart Tstop
  0.0   1.0   0.0   0.0   0.0    0.0
# main_grnod (ply k bottom face nodes)  / secondary_grnod (ply k+1 top face nodes)
  2014                                   3014
# bilinear cohesive failure block (energy-based, Spotflag=25):
# alpha_n  alpha_t  N  Imass  sigma_n        sigma_t        GIc            GIIc        eta_BK
  1.0      1.0      1  0      6.000e+07 9.000e+07 2.500e+02 8.000e+02 1.45

/INTER/TYPE2/7015
ply_15_to_ply_16_cohesive_tie
# Spotflag Idel Igap Inacti Iform Imult
  25       1    0    0      2     0
# Stmin Stfac Fric  Gap   Tstart Tstop
  0.0   1.0   0.0   0.0   0.0    0.0
# main_grnod (ply k bottom face nodes)  / secondary_grnod (ply k+1 top face nodes)
  2015                                   3015
# bilinear cohesive failure block (energy-based, Spotflag=25):
# alpha_n  alpha_t  N  Imass  sigma_n        sigma_t        GIc            GIIc        eta_BK
  1.0      1.0      1  0      6.000e+07 9.000e+07 2.500e+02 8.000e+02 1.45

/INTER/TYPE2/7016
ply_16_to_ply_17_cohesive_tie
# Spotflag Idel Igap Inacti Iform Imult
  25       1    0    0      2     0
# Stmin Stfac Fric  Gap   Tstart Tstop
  0.0   1.0   0.0   0.0   0.0    0.0
# main_grnod (ply k bottom face nodes)  / secondary_grnod (ply k+1 top face nodes)
  2016                                   3016
# bilinear cohesive failure block (energy-based, Spotflag=25):
# alpha_n  alpha_t  N  Imass  sigma_n        sigma_t        GIc            GIIc        eta_BK
  1.0      1.0      1  0      6.000e+07 9.000e+07 2.500e+02 8.000e+02 1.45

/INTER/TYPE2/7017
ply_17_to_ply_18_cohesive_tie
# Spotflag Idel Igap Inacti Iform Imult
  25       1    0    0      2     0
# Stmin Stfac Fric  Gap   Tstart Tstop
  0.0   1.0   0.0   0.0   0.0    0.0
# main_grnod (ply k bottom face nodes)  / secondary_grnod (ply k+1 top face nodes)
  2017                                   3017
# bilinear cohesive failure block (energy-based, Spotflag=25):
# alpha_n  alpha_t  N  Imass  sigma_n        sigma_t        GIc            GIIc        eta_BK
  1.0      1.0      1  0      6.000e+07 9.000e+07 2.500e+02 8.000e+02 1.45

/INTER/TYPE2/7018
ply_18_to_ply_19_cohesive_tie
# Spotflag Idel Igap Inacti Iform Imult
  25       1    0    0      2     0
# Stmin Stfac Fric  Gap   Tstart Tstop
  0.0   1.0   0.0   0.0   0.0    0.0
# main_grnod (ply k bottom face nodes)  / secondary_grnod (ply k+1 top face nodes)
  2018                                   3018
# bilinear cohesive failure block (energy-based, Spotflag=25):
# alpha_n  alpha_t  N  Imass  sigma_n        sigma_t        GIc            GIIc        eta_BK
  1.0      1.0      1  0      6.000e+07 9.000e+07 2.500e+02 8.000e+02 1.45

/INTER/TYPE2/7019
ply_19_to_ply_20_cohesive_tie
# Spotflag Idel Igap Inacti Iform Imult
  25       1    0    0      2     0
# Stmin Stfac Fric  Gap   Tstart Tstop
  0.0   1.0   0.0   0.0   0.0    0.0
# main_grnod (ply k bottom face nodes)  / secondary_grnod (ply k+1 top face nodes)
  2019                                   3019
# bilinear cohesive failure block (energy-based, Spotflag=25):
# alpha_n  alpha_t  N  Imass  sigma_n        sigma_t        GIc            GIIc        eta_BK
  1.0      1.0      1  0      6.000e+07 9.000e+07 2.500e+02 8.000e+02 1.45

/INTER/TYPE2/7020
ply_20_to_ply_21_cohesive_tie
# Spotflag Idel Igap Inacti Iform Imult
  25       1    0    0      2     0
# Stmin Stfac Fric  Gap   Tstart Tstop
  0.0   1.0   0.0   0.0   0.0    0.0
# main_grnod (ply k bottom face nodes)  / secondary_grnod (ply k+1 top face nodes)
  2020                                   3020
# bilinear cohesive failure block (energy-based, Spotflag=25):
# alpha_n  alpha_t  N  Imass  sigma_n        sigma_t        GIc            GIIc        eta_BK
  1.0      1.0      1  0      6.000e+07 9.000e+07 2.500e+02 8.000e+02 1.45

/INTER/TYPE2/7021
ply_21_to_ply_22_cohesive_tie
# Spotflag Idel Igap Inacti Iform Imult
  25       1    0    0      2     0
# Stmin Stfac Fric  Gap   Tstart Tstop
  0.0   1.0   0.0   0.0   0.0    0.0
# main_grnod (ply k bottom face nodes)  / secondary_grnod (ply k+1 top face nodes)
  2021                                   3021
# bilinear cohesive failure block (energy-based, Spotflag=25):
# alpha_n  alpha_t  N  Imass  sigma_n        sigma_t        GIc            GIIc        eta_BK
  1.0      1.0      1  0      6.000e+07 9.000e+07 2.500e+02 8.000e+02 1.45

/INTER/TYPE2/7022
ply_22_to_ply_23_cohesive_tie
# Spotflag Idel Igap Inacti Iform Imult
  25       1    0    0      2     0
# Stmin Stfac Fric  Gap   Tstart Tstop
  0.0   1.0   0.0   0.0   0.0    0.0
# main_grnod (ply k bottom face nodes)  / secondary_grnod (ply k+1 top face nodes)
  2022                                   3022
# bilinear cohesive failure block (energy-based, Spotflag=25):
# alpha_n  alpha_t  N  Imass  sigma_n        sigma_t        GIc            GIIc        eta_BK
  1.0      1.0      1  0      6.000e+07 9.000e+07 2.500e+02 8.000e+02 1.45

/INTER/TYPE2/7023
ply_23_to_ply_24_cohesive_tie
# Spotflag Idel Igap Inacti Iform Imult
  25       1    0    0      2     0
# Stmin Stfac Fric  Gap   Tstart Tstop
  0.0   1.0   0.0   0.0   0.0    0.0
# main_grnod (ply k bottom face nodes)  / secondary_grnod (ply k+1 top face nodes)
  2023                                   3023
# bilinear cohesive failure block (energy-based, Spotflag=25):
# alpha_n  alpha_t  N  Imass  sigma_n        sigma_t        GIc            GIIc        eta_BK
  1.0      1.0      1  0      6.000e+07 9.000e+07 2.500e+02 8.000e+02 1.45


# ---------------- support fixture BCs ----------------
/BCS/1
support_frame_uz_clamped
# trans_x trans_y trans_z rot_x rot_y rot_z
  0       0       1       0     0     0
# skew_id grnod_id
  0       5001
# (grnod 5001 = laminate bottom-face nodes outside fixture window)


# ---------------- state file output for stage 14 ----------------
/STATE/BRICK/FULL
# Tstart Tstop Tdt
  4.5e-3 5.0e-3 5.0e-4
/STATE/INTER/FULL
# Tstart Tstop Tdt
  4.5e-3 5.0e-3 5.0e-4


# ---------------- time history requests ----------------
/TH/RBODY/1
impactor_kinematics_TH
# var_list
  X Y Z VX VY VZ AX AY AZ FX FY FZ
  9001
/TH/INTER/2
contact_force_TH
# var_list
  FX FY FZ E
  8001
/TH/PART/3
energy_TH
# var_list
  IE KE HE
  1 2 3 4 5 6 7 8 9 10 11 12 13 14 15 16 17 18 19 20 21 22 23 24 100


/END
