#RADIOSS STARTER
/BEGIN
deck_LAW12_TYPE1_HASHIN
      2026         0
                  kg                  mm                  ms
                  kg                  mm                  ms
/TITLE
LAW12 3D_COMP TYPE1 HASHIN compatibility probe
/DEF_SOLID
         0         0                   0                                       0
/DEF_SHELL
         0         0         0         0         0                             1         0
/MAT/LAW12/1
probe_3d_comp
            1.55e-09
              135000               10000               10000
                 0.3                 0.4        0.0222222222
                5000                3800                5000
                1500                  50                  50                   0
                   1                   1                   1
                1500                  50                1200                 200
                  90                  90                  70                  70
                  50                 200                  90                  90
                   0                   0                   0                   0         0
/FAIL/HASHIN/1
         1         0         1                   1
                1500                  50                  50                1200                 200
                 200                  90                  90                  70                  90
                   0                   1                   0                                       0
/NODE
         1                   0                   0                   0
         2                   1                   0                   0
         3                   1                   1                   0
         4                   0                   1                   0
/PART/1
probe_part
         1         1         0
/SHELL/1
         1         1         2         3         4
/BCS/1
probe_clamp
   111 111         0         1
/GRNOD/NODE/1
probe_fixed_nodes
         1         4
/CLOAD/1
probe_unit_load
        99         X         0         0         2                             1                   1
/GRNOD/NODE/2
probe_loaded_nodes
         2         3
/FUNCT/99
probe_constant_load
                   0                   1
                   1                   1
/PROP/TYPE1/1
probe_type1_shell
         0         0         0         0                                                 0
                   0                   0                   0                   0                   0
         1         0                   1                   0                   0         0
/END
