#RADIOSS STARTER
/BEGIN
deck_LAW123_TYPE1_PUCK
      2026         0
                  kg                  mm                  ms
                  kg                  mm                  ms
/TITLE
LAW123 LAMINATED_FRACTURE_DAIMLER_PINHO TYPE1 PUCK compatibility probe
/DEF_SOLID
         0         0                   0                                       0
/DEF_SHELL
         0         0         0         0         0                             1         0
/MAT/LAW123/1
probe_laminated_fracture_daimler_pinho
            1.55e-09
              135000               10000               10000
                5000                5000                3800
                 0.3        0.0222222222                 0.4
                 0.1                 0.1                 0.1                 0.1                 0.1
                1200                1500                 200                  50                  90
                   0                   0         0                   0
                   0                   1                   0
/FAIL/PUCK/1
                1500                  50                  90                1200                 200
                 0.3                0.25                0.25                   0         0         1
                   0
/NODE
         1                   0                   0                   0
         2                   1                   0                   0
         3                   1                   1                   0
         4                   0                   1                   0
/PART/1
probe_part
         1         1         0
/SHELL/1
         1         1         2         3         4
/BCS/1
probe_clamp
   111 111         0         1
/GRNOD/NODE/1
probe_fixed_nodes
         1         4
/CLOAD/1
probe_unit_load
        99         X         0         0         2                             1                   1
/GRNOD/NODE/2
probe_loaded_nodes
         2         3
/FUNCT/99
probe_constant_load
                   0                   1
                   1                   1
/PROP/TYPE1/1
probe_type1_shell
         0         0         0         0                                                 0
                   0                   0                   0                   0                   0
         1         0                   1                   0                   0         0
/END
