#RADIOSS STARTER
/BEGIN
deck_LAW28_TYPE1_JOHNSON
      2026         0
                  kg                  mm                  ms
                  kg                  mm                  ms
/TITLE
LAW28 HONEYCOMB TYPE1 JOHNSON compatibility probe
/DEF_SOLID
         0         0                   0                                       0
/DEF_SHELL
         0         0         0         0         0                             1         0
/MAT/LAW28/1
probe_honeycomb
             7.8e-05
               6.429               6.429               6.429
                 2.5                 2.5                 2.5
         1         1         1         0                   0                   0                   0
                   0                   0                   0
         1         1         1         0                   0                   0                   0
                   0                   0                   0
/FAIL/JOHNSON/1
                 0.1                   0                   0                   0                   0
                   1         0         1                   0                   0                   0
         0
/NODE
         1                   0                   0                   0
         2                   1                   0                   0
         3                   1                   1                   0
         4                   0                   1                   0
/PART/1
probe_part
         1         1         0
/SHELL/1
         1         1         2         3         4
/BCS/1
probe_clamp
   111 111         0         1
/GRNOD/NODE/1
probe_fixed_nodes
         1         4
/CLOAD/1
probe_unit_load
        99         X         0         0         2                             1                   1
/GRNOD/NODE/2
probe_loaded_nodes
         2         3
/FUNCT/99
probe_constant_load
                   0                   1
                   1                   1
/PROP/TYPE1/1
probe_type1_shell
         0         0         0         0                                                 0
                   0                   0                   0                   0                   0
         1         0                   1                   0                   0         0
/FUNCT/1
LAW28_constant_function
         -1000000000                   1
          1000000000                   1
/END
