#RADIOSS STARTER
/BEGIN
deck_LAW15_TYPE1_base
      2026         0
                  kg                  mm                  ms
                  kg                  mm                  ms
/TITLE
LAW15 CHANG TYPE1 base compatibility probe
/DEF_SOLID
         0         0                   0                                       0
/DEF_SHELL
         0         0         0         0         0                             1         0
/MAT/LAW15/1
probe_chang
            1.55e-09
              135000               10000                 0.3
                5000                3800                5000
                   1                   1               1e+30
               1e+30                   1         0
                1500                  50                1200                 200                   1
                  90                  90                   0                   0         0
                   1               1e+30                1500                  50                  90
         0                   0                1200                 200
/NODE
         1                   0                   0                   0
         2                   1                   0                   0
         3                   1                   1                   0
         4                   0                   1                   0
/PART/1
probe_part
         1         1         0
/SHELL/1
         1         1         2         3         4
/BCS/1
probe_clamp
   111 111         0         1
/GRNOD/NODE/1
probe_fixed_nodes
         1         4
/CLOAD/1
probe_unit_load
        99         X         0         0         2                             1                   1
/GRNOD/NODE/2
probe_loaded_nodes
         2         3
/FUNCT/99
probe_constant_load
                   0                   1
                   1                   1
/PROP/TYPE1/1
probe_type1_shell
         0         0         0         0                                                 0
                   0                   0                   0                   0                   0
         1         0                   1                   0                   0         0
/END
